data_image0
_cell_length_a       9.45676
_cell_length_b       10.9289
_cell_length_c       22.9999
_cell_angle_alpha    90
_cell_angle_beta     90
_cell_angle_gamma    90

_symmetry_space_group_name_H-M    "P 1"
_symmetry_int_tables_number       1

loop_
  _symmetry_equiv_pos_as_xyz
  'x, y, z'

loop_
  _atom_site_label
  _atom_site_occupancy
  _atom_site_fract_x
  _atom_site_fract_y
  _atom_site_fract_z
  _atom_site_thermal_displace_type
  _atom_site_B_iso_or_equiv
  _atom_site_type_symbol
  Mo1      1.0000 0.85561  0.33195  0.15878  Biso   1.000  Mo
  S1       1.0000 0.02465  0.24950  0.22696  Biso   1.000  S
  S2       1.0000 0.02464  0.24670  0.09175  Biso   1.000  S
  Mo2      1.0000 0.02440  0.58047  0.16004  Biso   1.000  Mo
  S3       1.0000 0.85052  0.49674  0.22690  Biso   1.000  S
  S4       1.0000 0.85690  0.49929  0.09080  Biso   1.000  S
  Mo3      1.0000 0.85695  0.82930  0.16045  Biso   1.000  Mo
  S5       1.0000 0.02451  0.74645  0.22859  Biso   1.000  S
  S6       1.0000 0.02427  0.74726  0.09253  Biso   1.000  S
  Mo4      1.0000 0.02434  0.08020  0.16030  Biso   1.000  Mo
  S7       1.0000 0.85639  0.99720  0.22840  Biso   1.000  S
  S8       1.0000 0.85736  0.99632  0.09239  Biso   1.000  S
  Mo5      1.0000 0.52453  0.33515  0.15724  Biso   1.000  Mo
  S9       1.0000 0.68752  0.25310  0.22673  Biso   1.000  S
  S10      1.0000 0.68899  0.24674  0.09068  Biso   1.000  S
  Mo6      1.0000 0.68629  0.57769  0.15746  Biso   1.000  Mo
  S11      1.0000 0.52448  0.49695  0.08867  Biso   1.000  S
  Mo7      1.0000 0.52440  0.82756  0.15898  Biso   1.000  Mo
  S12      1.0000 0.68651  0.74057  0.22711  Biso   1.000  S
  S13      1.0000 0.69257  0.74513  0.09095  Biso   1.000  S
  Mo8      1.0000 0.69053  0.08103  0.15999  Biso   1.000  Mo
  S14      1.0000 0.52441  0.99528  0.22753  Biso   1.000  S
  S15      1.0000 0.52447  0.99694  0.09199  Biso   1.000  S
  Mo9      1.0000 0.19352  0.33218  0.15878  Biso   1.000  Mo
  S16      1.0000 0.36157  0.25318  0.22672  Biso   1.000  S
  S17      1.0000 0.36007  0.24697  0.09067  Biso   1.000  S
  Mo10     1.0000 0.36237  0.57785  0.15739  Biso   1.000  Mo
  S18      1.0000 0.19819  0.49703  0.22692  Biso   1.000  S
  S19      1.0000 0.19180  0.49952  0.09072  Biso   1.000  S
  Mo11     1.0000 0.19176  0.82949  0.16033  Biso   1.000  Mo
  S20      1.0000 0.36207  0.74077  0.22703  Biso   1.000  S
  S21      1.0000 0.35628  0.74522  0.09084  Biso   1.000  S
  Mo12     1.0000 0.35828  0.08101  0.15994  Biso   1.000  Mo
  S22      1.0000 0.19216  0.99723  0.22838  Biso   1.000  S
  S23      1.0000 0.19107  0.99654  0.09227  Biso   1.000  S
